OPT_V8/Brussels_test_1203-1147/powerflow_results_t7.txt
Pandapower Network Debug Info
==================================================

BUS:
       vm_pu     va_degree     p_mw  q_mvar
0   0.999999  5.631922e-05  0.00000   0.000
1   0.999999  5.631922e-05  0.00000   0.000
2   0.999999  5.631922e-05  0.00000   0.000
3   0.999999  5.631922e-05  0.00000   0.000
4   0.999998  1.536241e-04  0.00000   0.000
5   0.999998  1.536241e-04  0.00000   0.000
6   0.999998  1.536241e-04  0.00000   0.000
7   0.999998  1.536241e-04  0.00000   0.000
8   0.999998  1.536241e-04  0.00000   0.000
9   0.999999  5.603276e-05  0.00000   0.000
10  0.999999  5.603276e-05  0.00000   0.000
11  0.999999  5.603276e-05  0.00000   0.000
12  0.999998  1.533377e-04  0.00000   0.000
13  0.999998  1.533377e-04  0.00000   0.000
14  0.999998  1.533377e-04  0.00000   0.000
15  0.999999  5.603276e-05  0.00000   0.000
16  0.999999  5.631922e-05  0.00000   0.000
17  0.999998  1.533377e-04  0.00000   0.000
18  0.999998  1.536241e-04  0.00000   0.000
19  1.000000  0.000000e+00 -0.00002  -0.005
20  1.000000  4.297101e-07  0.00000   0.000
21  1.000000  0.000000e+00 -0.00002  -0.005
22  1.000000  4.297097e-07  0.00000   0.000
--------------------------------------------------

LINE:
       p_from_mw   q_from_mvar       p_to_mw     q_to_mvar         pl_mw       ql_mvar     i_from_ka       i_to_ka          i_ka  vm_from_pu  va_from_degree  vm_to_pu  va_to_degree  loading_percent
0   1.000065e-05  9.999482e-04 -9.999671e-06 -9.999474e-04  9.781298e-10  7.626639e-10  3.848995e-05  3.848995e-05  3.848995e-05    1.000000    4.297101e-07  0.999999      0.000056     1.673476e-02
1   1.000180e-05  9.999451e-04 -9.999109e-06 -9.999430e-04  2.689840e-09  2.097313e-09  3.848983e-05  3.848983e-05  3.848983e-05    1.000000    4.297097e-07  0.999998      0.000153     1.673471e-02
2   2.273735e-13  2.223613e-19 -2.273735e-13 -2.223613e-19  2.524355e-29  3.557453e-29  8.751617e-15  8.751617e-15  8.751617e-15    0.999999    5.603276e-05  0.999999      0.000056     3.805051e-12
3   0.000000e+00  0.000000e+00  0.000000e+00  0.000000e+00  0.000000e+00  0.000000e+00  0.000000e+00  0.000000e+00  0.000000e+00    0.999998    1.533377e-04  0.999998      0.000153     0.000000e+00
4   0.000000e+00  0.000000e+00  0.000000e+00  0.000000e+00  0.000000e+00  0.000000e+00  0.000000e+00  0.000000e+00  0.000000e+00    0.999998    1.533377e-04  0.999998      0.000153     0.000000e+00
5   2.220442e-16  2.220447e-16 -2.220442e-16 -2.220447e-16  4.930381e-32  4.930381e-32  4.532467e-16  4.532467e-16  4.532467e-16    0.999999    5.631922e-05  0.999999      0.000056     1.970638e-13
6   0.000000e+00  0.000000e+00  0.000000e+00  0.000000e+00  0.000000e+00  0.000000e+00  0.000000e+00  0.000000e+00  0.000000e+00    0.999998    1.536241e-04  0.999998      0.000154     0.000000e+00
7   0.000000e+00  0.000000e+00  0.000000e+00  0.000000e+00  0.000000e+00  0.000000e+00  0.000000e+00  0.000000e+00  0.000000e+00    0.999998    1.536241e-04  0.999998      0.000154     0.000000e+00
8   4.440895e-16 -4.440871e-16 -4.440895e-16  4.440871e-16  9.860761e-32  0.000000e+00  9.064933e-16  9.064933e-16  9.064933e-16    0.999998    1.536241e-04  0.999998      0.000154     3.941275e-13
9   0.000000e+00  0.000000e+00  0.000000e+00  0.000000e+00  0.000000e+00  0.000000e+00  0.000000e+00  0.000000e+00  0.000000e+00    0.999999    5.603276e-05  0.999999      0.000056     0.000000e+00
10  0.000000e+00  0.000000e+00  0.000000e+00  0.000000e+00  0.000000e+00  0.000000e+00  0.000000e+00  0.000000e+00  0.000000e+00    0.999999    5.603276e-05  0.999999      0.000056     0.000000e+00
11  0.000000e+00  0.000000e+00  0.000000e+00  0.000000e+00  0.000000e+00  0.000000e+00  0.000000e+00  0.000000e+00  0.000000e+00    0.999998    1.533377e-04  0.999998      0.000153     0.000000e+00
12  0.000000e+00  0.000000e+00  0.000000e+00  0.000000e+00  0.000000e+00  0.000000e+00  0.000000e+00  0.000000e+00  0.000000e+00    0.999999    5.631922e-05  0.999999      0.000056     0.000000e+00
13  0.000000e+00  0.000000e+00  0.000000e+00  0.000000e+00  0.000000e+00  0.000000e+00  0.000000e+00  0.000000e+00  0.000000e+00    0.999999    5.631922e-05  0.999999      0.000056     0.000000e+00
14  0.000000e+00  0.000000e+00  0.000000e+00  0.000000e+00  0.000000e+00  0.000000e+00  0.000000e+00  0.000000e+00  0.000000e+00    0.999999    5.631922e-05  0.999999      0.000056     0.000000e+00
15  0.000000e+00  0.000000e+00  0.000000e+00  0.000000e+00  0.000000e+00  0.000000e+00  0.000000e+00  0.000000e+00  0.000000e+00    0.999998    1.536241e-04  0.999998      0.000154     0.000000e+00
16  0.000000e+00  0.000000e+00  0.000000e+00  0.000000e+00  0.000000e+00  0.000000e+00  0.000000e+00  0.000000e+00  0.000000e+00    0.999998    1.536241e-04  0.999998      0.000154     0.000000e+00
--------------------------------------------------

TRAFO:
   p_hv_mw  q_hv_mvar       p_lv_mw     q_lv_mvar    pl_mw  ql_mvar   i_hv_ka       i_lv_ka  vm_hv_pu  va_hv_degree  vm_lv_pu  va_lv_degree  loading_percent
0  0.00001      0.001  1.455114e-11  7.724311e-10  0.00001    0.001  0.000038  1.115107e-09  0.999999      0.000056  0.999999  5.631922e-05           0.0100
1  0.00001      0.001 -5.695143e-15  2.124065e-09  0.00001    0.001  0.000038  3.065830e-09  0.999998      0.000153  0.999998  1.536241e-04           0.0100
2  0.00002      0.005 -9.999952e-06 -9.999485e-04  0.00001    0.004  0.000041  3.848996e-05  1.000000      0.000000  1.000000  4.297101e-07           0.0125
3  0.00002      0.005 -9.999952e-06 -9.999458e-04  0.00001    0.004  0.000041  3.848985e-05  1.000000      0.000000  1.000000  4.297097e-07           0.0125
--------------------------------------------------
